/*--------------------------------*- C++ -*----------------------------------*\
  =========                 |
  \\      /  F ield         | OpenFOAM: The Open Source CFD Toolbox
   \\    /   O peration     | Website:  https://openfoam.org
    \\  /    A nd           | Version:  10
     \\/     M anipulation  |
\*---------------------------------------------------------------------------*/
FoamFile
{
    format      ascii;
    class       polyBoundaryMesh;
    location    "constant/polyMesh";
    object      boundary;
}
// * * * * * * * * * * * * * * * * * * * * * * * * * * * * * * * * * * * * * //

5
(
    xmin
    {
        type            cyclic;
        inGroups        List<word> 1(cyclic);
        nFaces          200;
        startFace       79600;
        matchTolerance  0.0001;
        neighbourPatch  xmax;
        transformType   translational;
        separation      (-2 0 0);
    }
    xmax
    {
        type            cyclic;
        inGroups        List<word> 1(cyclic);
        nFaces          200;
        startFace       79800;
        matchTolerance  0.0001;
        neighbourPatch  xmin;
        transformType   translational;
        separation      (2 0 0);
    }
    ymin
    {
        type            patch;
        nFaces          200;
        startFace       80000;
    }
    ymax
    {
        type            patch;
        nFaces          200;
        startFace       80200;
    }
    frontAndBack
    {
        type            empty;
        inGroups        List<word> 1(empty);
        nFaces          80000;
        startFace       80400;
    }
)

// ************************************************************************* //
