/*--------------------------------*- C++ -*----------------------------------*\
| =========                 |                                                 |
| \\      /  F ield         | OpenFOAM: The Open Source CFD Toolbox           |
|  \\    /   O peration     | Version:  3.0.x                                 |
|   \\  /    A nd           | Web:      www.OpenFOAM.org                      |
|    \\/     M anipulation  |                                                 |
\*---------------------------------------------------------------------------*/
FoamFile
{
    version     2.0;
    format      binary;
    class       volScalarField;
    location    "0/fluid";
    object      T;
}
// * * * * * * * * * * * * * * * * * * * * * * * * * * * * * * * * * * * * * //

dimensions      [ 0 0 0 1 0 0 0 ];

internalField   uniform 400;

boundaryField
{
    minX
    {
        type            fixedValue;
        value           uniform 400;
    }
    maxX
    {
        type            zeroGradient;
        value           uniform 400;
    }
    minY
    {
        type            symmetryPlane;
    }
    minZ
    {
        type            empty;
    }
    maxZ
    {
        type            empty;
    }
    fluid_to_solid
    {
        type            solidWallMixedTemperatureCoupled;
        value           uniform 300;
        neighbourFieldName T;
        K               K;
    }
}


// ************************************************************************* //
