/*--------------------------------*- C++ -*----------------------------------*\
| =========                 |                                                 |
| \\      /  F ield         | OpenFOAM: The Open Source CFD Toolbox           |
|  \\    /   O peration     | Version:  1.7.1                                 |
|   \\  /    A nd           | Web:      www.OpenFOAM.com                      |
|    \\/     M anipulation  |                                                 |
\*---------------------------------------------------------------------------*/
FoamFile
{
    version     2.0;
    format      ascii;
    class       dictionary;
    object      fvSolution;
}
// * * * * * * * * * * * * * * * * * * * * * * * * * * * * * * * * * * * * * //

solvers
{
    rho
    {
        solver          PCG
        preconditioner  DIC;
        tolerance       1e-7;
        relTol          0;
    }

    p
    {
        solver          GAMG;
        tolerance       1e-06;
        relTol          0.01;
        smoother        GaussSeidel;
        cacheAgglomeration true;
        nCellsInCoarsestLevel 10;
        agglomerator    faceAreaPair;
        mergeLevels     1;
    }

    pFinal
    {
        solver          GAMG;
        tolerance       1e-06;
        relTol          0;
        smoother        GaussSeidel;
        cacheAgglomeration true;
        nCellsInCoarsestLevel 10;
        agglomerator    faceAreaPair;
        mergeLevels     1;
    }

    "(U|UFinal|h|k|epsilon|T)"
    {
        solver           PBiCG;
        preconditioner   DILU;
        tolerance        1e-7;
        relTol           0.1;
    }

    hFinal
    {
        solver          PBiCG;
        preconditioner  DILU;
        tolerance       1e-8;
        relTol          0;
    };
}

SIMPLE
{
    nNonOrthogonalCorrectors 0;
    pRefCell                0;
    pRefValue               100000;
    rhoMin      rhoMin [1 -3 0 0 0] 0.2;
    rhoMax      rhoMax [1 -3 0 0 0] 2;
}

PISO
{
    nNonOrthogonalCorrectors 1;
}

PIMPLE
{
    nNonOrthogonalCorrectors 1;
    nCorrectors 2;
}


relaxationFactors
{
    rho         1;
    p_rgh       0.7;
    U           0.3;
    h           0.7;
    nuTilda     0.7;
    k           0.7;
    epsilon     0.7;
    omega       0.7;
    T			0.7;
}

// ************************************************************************* //
