/*--------------------------------*- C++ -*----------------------------------*\
| =========                 |                                                 |
| \\      /  F ield         | OpenFOAM: The Open Source CFD Toolbox           |
|  \\    /   O peration     | Version:  2.3.x                                 |
|   \\  /    A nd           | Web:      www.OpenFOAM.org                      |
|    \\/     M anipulation  |                                                 |
\*---------------------------------------------------------------------------*/
FoamFile
{
    version     2.0;
    format      ascii;
    class       dictionary;
    object      blockMeshDict;
}
// * * * * * * * * * * * * * * * * * * * * * * * * * * * * * * * * * * * * * //

convertToMeters 1;

vertices        
(
   ( 0.0 0.0 0.0)
   ( 1.0 0.0 0.0)
   ( 1.0 0.0 0.1)
   ( 0.0 0.0 0.1)
   ( 0.0 0.1 0.0)
   ( 1.0 0.1 0.0)
   ( 1.0 0.1 0.1)
   ( 0.0 0.1 0.1)
);

blocks          
(
    hex (0 1 5 4 3 2 6 7)   (100 1 1) simpleGrading (1 1 1)
);

edges           
(
);

boundary
(
    inlet
    {
        //type wall;
        type cyclic;
	    neighbourPatch outlet;
        faces
        (
            (0 4 7 3)
        );
    }
    outlet
    {
        //type wall;
        type cyclic;
	    neighbourPatch inlet;
        faces
        (
            (1 5 6 2)
        );
    }

    bottom
    {
        type patch;
        faces
        (
            (0 1 5 4)
        );
    }

    top
    {
        type patch;
        faces
        (
            (3 2 6 7)
        );
    }

    frontAndBack
    {
        type empty;
        faces
        (
            (0 1 2 3)
            (4 5 6 7)
        );
    }
);


mergePatchPairs
(
);

// ************************************************************************* //
