/*--------------------------------*- C++ -*----------------------------------*\
| =========                 |                                                 |
| \\      /  F ield         | OpenFOAM: The Open Source CFD Toolbox           |
|  \\    /   O peration     | Version:  3.0.x                                 |
|   \\  /    A nd           | Web:      www.OpenFOAM.org                      |
|    \\/     M anipulation  |                                                 |
\*---------------------------------------------------------------------------*/
FoamFile
{
    version     2.0;
    format      ascii;
    class       dictionary;
    object      controlDict;
}
// * * * * * * * * * * * * * * * * * * * * * * * * * * * * * * * * * * * * * //


application     icoFoam;

startFrom       latestTime;

startTime       0;

stopAt          endTime;

endTime         50;

deltaT          0.05;

writeControl    timeStep;

writeInterval   5;

purgeWrite      0;

writeFormat     ascii;

writePrecision  8;

writeCompression off;

timeFormat      general;

timePrecision   6;

runTimeModifiable true;


libs ("paraboloidVelocityBC.so" "timeVaryingParaboloidVelocityBC.so");

// ************************************************************************* //

functions
(

///////////////////////////////////////////////////////////////////////////

minmaxdomain
{
	type fieldMinMax;

	functionObjectLibs ("libfieldFunctionObjects.so");

	enabled true;

	mode component;

	outputControl timeStep;
	outputInterval 1;

	log true;

	fields (p U);
}

///////////////////////////////////////////////////////////////////////////

);
