/*--------------------------------*- C++ -*----------------------------------*\
| =========                 |                                                 |
| \\      /  F ield         | OpenFOAM: The Open Source CFD Toolbox           |
|  \\    /   O peration     | Version:  3.0.x                                 |
|   \\  /    A nd           | Web:      www.OpenFOAM.org                      |
|    \\/     M anipulation  |                                                 |
\*---------------------------------------------------------------------------*/
FoamFile
{
    version     2.0;
    format      ascii;
    class       dictionary;
    object      controlDict;
}
// * * * * * * * * * * * * * * * * * * * * * * * * * * * * * * * * * * * * * //

application     scalarTransportFoam;

startFrom       startTime;

startTime       0;

stopAt          endTime;

endTime         0.5;

//deltaT          0.0001; //CFL = 0.01
//deltaT          0.001; //CFL = 0.1
deltaT          0.005; //CFL = 0.5
//deltaT          0.01; //CFL = 1
//deltaT          0.05; //CFL = 5
//deltaT          0.1; //CFL = 10

writeControl    runTime;

writeInterval   0.1;

purgeWrite      0;

writeFormat     ascii;

writePrecision  6;

writeCompression off;

timeFormat      general;

timePrecision   6;

runTimeModifiable true;

// ************************************************************************* //

// functions
// (

// domainminandmax
// {
//     type fieldMinMax;

//     functionObjectLibs ("libfieldFunctionObjects.so");

//     enabled true;

//     mode component;

//     outputControl timeStep;
//     outputInterval 1;

//     log true;

//     fields (U T);
// }

// /*
// CourantNo
// {
//     type                CourantNo;
//     functionObjectLibs  ("libutilityFunctionObjects.so");

//     outputControl outputTime;

//     enabled true;

//     log true;
// }
// */

// );
