/*--------------------------------*- C++ -*----------------------------------*\
| =========                 |                                                 |
| \\      /  F ield         | OpenFOAM: The Open Source CFD Toolbox           |
|  \\    /   O peration     | Version:  3.0.x                                 |
|   \\  /    A nd           | Web:      www.OpenFOAM.org                      |
|    \\/     M anipulation  |                                                 |
\*---------------------------------------------------------------------------*/
FoamFile
{
    version     2.0;
    format      ascii;
    class       dictionary;
    location    "system";
    object      fvSolution;
}
// * * * * * * * * * * * * * * * * * * * * * * * * * * * * * * * * * * * * * //

solvers
{
    T
    {
        solver          PCG;
        preconditioner  DIC;
        tolerance       1e-06;
        relTol          0.05;
    }
}

SIMPLE//this is mandotory and it can be coppyed from any simpleFoam case;
{
    nNonOrthogonalCorrectors 0;
    
    /*
    residualControl
    {
        T               1e-5;
    }
    */ 
}

/*
relaxationFactors
{
    equations
    {
        T               0.7;
    }
}
*/

// ************************************************************************* //
