/*--------------------------------*- C++ -*----------------------------------*\
| =========                 |                                                 |
| \\      /  F ield         | OpenFOAM: The Open Source CFD Toolbox           |
|  \\    /   O peration     | Version:  2.1.1                                 |
|   \\  /    A nd           | Web:      www.OpenFOAM.org                      |
|    \\/     M anipulation  |                                                 |
\*---------------------------------------------------------------------------*/
FoamFile
{
    version     2.0;
    format      ascii;
    class       dictionary;
    object      fvSolution;
}
// * * * * * * * * * * * * * * * * * * * * * * * * * * * * * * * * * * * * * //

solvers
{
       "alpha.water.*"
    {
        cAlpha          0;
        nAlphaCorr      2; //2
        nAlphaSubCycles 1; //1 olacak

        MULESCorr       yes;
        nLimiterIter    5;

        solver          smoothSolver;
        smoother        symGaussSeidel;
        tolerance       1e-8;
        relTol          0;
    };

     "(U|k|epsilon)"
    {
        solver          smoothSolver;
        smoother        symGaussSeidel;
        tolerance       1e-06;
        relTol          0;
    }

       "(U|k|epsilon)Final"
    {
        solver          smoothSolver;
        smoother        symGaussSeidel;
        tolerance       1e-08;
        relTol          0;
    }

     p_rgh
    {
        solver           GAMG;
        tolerance        1e-8;
        relTol           0.1;

        smoother         DICGaussSeidel;
        nPreSweeps       0;
        nPostSweeps      2;

        cacheAgglomeration false; //once true idi

        nCellsInCoarsestLevel 10;
        agglomerator     faceAreaPair;
        mergeLevels      1;

        maxIter          100; // 50 idi
    };

    pcorr
    {
        $p_rgh;
        relTol           0;
    };

    p_rghFinal
    {
        solver            PCG;
        preconditioner
        {
            preconditioner  GAMG;

            tolerance        1e-6;
            relTol           0;

            nVcycles         2;

            smoother         DICGaussSeidel;
            nPreSweeps       0;
            nPostSweeps      2;
            nFinestSweeps    2;

            cacheAgglomeration false; //baste true idi.
            nCellsInCoarsestLevel 10;
            agglomerator     faceAreaPair;
            mergeLevels      1;
        };
        tolerance        1e-7;
        relTol           0;
        maxIter          100; //50 idi
    };
}

PIMPLE
{
    momentumPredictor          yes;
    nOuterCorrectors           1;
    nCorrectors                4;
    nNonOrthogonalCorrectors    0;

//    cAlpha                     0;
//    nAlphaCorr                 1;
//    nAlphaSubCycles           2;
}


relaxationFactors
{
    fields
    {
    }
    equations
    {
      "U.*"                      1;
//        "p_rgh.*"                  0.3;
//        "k.*"                      0.7;
//        "epsilon.*"                0.7;  
    }
}




// ************************************************************************* //
