/*--------------------------------*- C++ -*----------------------------------*\
| =========                 |                                                 |
| \\      /  F ield         | OpenFOAM: The Open Source CFD Toolbox           |
|  \\    /   O peration     | Version:  3.0.x                                 |
|   \\  /    A nd           | Web:      www.OpenFOAM.org                      |
|    \\/     M anipulation  |                                                 |
\*---------------------------------------------------------------------------*/
FoamFile
{
    version     2.0;
    format      ascii;
    class       dictionary;
    object      controlDict;
}
// * * * * * * * * * * * * * * * * * * * * * * * * * * * * * * * * * * * * * //

application     icoFoam;

//startFrom       startTime;
startFrom       latestTime;

startTime       0;

stopAt          endTime;
//stopAt	  writeNow;

endTime         350;
//endTime         500;

//deltaT          0.005;
//deltaT          0.01;
//deltaT          0.02;
deltaT          0.01;

writeControl    runTime;
/*
adjustableRunTime
clockTime
cpuTime
runTime
timeStep
*/

writeInterval   1;

/*
secondaryWriteControl    cpuTime;
secondaryWriteInterval   1000; 
secondaryPurgeWrite      1; 
*/

purgeWrite      0;

writeFormat     ascii;

writePrecision  8;

writeCompression off;

timeFormat      general;

timePrecision   6;

runTimeModifiable true;

// ************************************************************************* //

functions
{
///////////////////////////////////////////////////////////////////////////

    forceCoeffs_object
    {
	// rhoInf - reference density
	// CofR - Centre of rotation
	// dragDir - Direction of drag coefficient
	// liftDir - Direction of lift coefficient
	// pitchAxis - Pitching moment axis
	// magUinf - free stream velocity magnitude
	// lRef - reference length
	// Aref - reference area
	type forceCoeffs;
	functionObjectLibs ("libforces.so");
	patches (cylinder);

	pName p;
	Uname U;
	rhoName rhoInf;
	rhoInf 1.0;

	//// Dump to file
	log true;

	CofR (0.0 0 0);
	liftDir (0 1 0);
	dragDir (1 0 0);
	pitchAxis (0 0 1);
	magUInf 1.0;
	lRef 1.0;         // reference lenght for moments!!!
	Aref 1.0;         // reference area 1 for 2d

    outputControl   timeStep;
    outputInterval  1;
    }

///////////////////////////////////////////////////////////////////////////

};
